[root]
type=Root
children=system
eventq_index=0
full_system=false
sim_quantum=0
time_sync_enable=false
time_sync_period=100000000000
time_sync_spin_threshold=100000000

[system]
type=System
children=clk_domain cpu0 cpu1 cpu2 dma_cntrl0 dma_cntrl1 dvfs_handler l1_coalescer0 l1_coalescer1 l1_coalescer2 l1_coalescer3 l1_tlb0 l1_tlb1 l1_tlb2 l1_tlb3 l2_coalescer l2_tlb l3_coalescer l3_tlb mem_ctrls piobus redirect_paths0 redirect_paths1 redirect_paths2 redirect_paths3 ruby scalar_coalescer scalar_tlb sqc_coalescer sqc_tlb sys_port_proxy voltage_domain
boot_osflags=a
cache_line_size=64
clk_domain=system.clk_domain
default_p_state=UNDEFINED
eventq_index=0
exit_on_work_items=false
init_param=0
kernel=
kernel_addr_check=true
kernel_extras=
kvm_vm=Null
load_addr_mask=18446744073709551615
load_offset=0
mem_mode=timing
mem_ranges=0:536870911:0:0:0:0
memories=system.mem_ctrls system.ruby.phys_mem
mmap_using_noreserve=false
multi_thread=false
num_work_ids=16
p_state_clk_gate_bins=20
p_state_clk_gate_max=1000000000000
p_state_clk_gate_min=1000
power_model=
readfile=
redirect_paths=system.redirect_paths0 system.redirect_paths1 system.redirect_paths2 system.redirect_paths3
symbolfile=
thermal_components=
thermal_model=Null
work_begin_ckpt_count=0
work_begin_cpu_id_exit=-1
work_begin_exit_count=0
work_cpus_ckpt_count=0
work_end_ckpt_count=0
work_end_exit_count=0
work_item_id=-1
system_port=system.sys_port_proxy.slave[0]

[system.clk_domain]
type=SrcClockDomain
clock=1000
domain_id=-1
eventq_index=0
init_perf_level=0
voltage_domain=system.voltage_domain

[system.cpu0]
type=TimingSimpleCPU
children=apic_clk_domain clk_domain dtb interrupts isa itb tracer workload
branchPred=Null
checker=Null
clk_domain=system.cpu0.clk_domain
cpu_id=0
default_p_state=UNDEFINED
do_checkpoint_insts=true
do_quiesce=true
do_statistics_insts=true
dtb=system.cpu0.dtb
eventq_index=0
function_trace=false
function_trace_start=0
interrupts=system.cpu0.interrupts
isa=system.cpu0.isa
itb=system.cpu0.itb
max_insts_all_threads=0
max_insts_any_thread=0
max_loads_all_threads=0
max_loads_any_thread=0
numThreads=1
p_state_clk_gate_bins=20
p_state_clk_gate_max=1000000000000
p_state_clk_gate_min=1000
power_gating_on_idle=false
power_model=
profile=0
progress_interval=0
pwr_gating_latency=300
simpoint_start_insts=
socket_id=0
switched_out=false
syscallRetryLatency=10000
system=system
tracer=system.cpu0.tracer
wait_for_remote_gdb=false
workload=system.cpu0.workload
dcache_port=system.ruby.cp_cntrl0.sequencer.slave[1]
icache_port=system.ruby.cp_cntrl0.sequencer.slave[0]

[system.cpu0.apic_clk_domain]
type=DerivedClockDomain
clk_divider=16
clk_domain=system.cpu0.clk_domain
eventq_index=0

[system.cpu0.clk_domain]
type=SrcClockDomain
children=voltage_domain
clock=500
domain_id=-1
eventq_index=0
init_perf_level=0
voltage_domain=system.cpu0.clk_domain.voltage_domain

[system.cpu0.clk_domain.voltage_domain]
type=VoltageDomain
eventq_index=0
voltage=1.0

[system.cpu0.dtb]
type=X86TLB
children=walker
eventq_index=0
size=64
walker=system.cpu0.dtb.walker

[system.cpu0.dtb.walker]
type=X86PagetableWalker
clk_domain=system.cpu0.clk_domain
default_p_state=UNDEFINED
eventq_index=0
num_squash_per_cycle=4
p_state_clk_gate_bins=20
p_state_clk_gate_max=1000000000000
p_state_clk_gate_min=1000
power_model=
system=system

[system.cpu0.interrupts]
type=X86LocalApic
clk_domain=system.cpu0.apic_clk_domain
default_p_state=UNDEFINED
eventq_index=0
int_latency=1000
p_state_clk_gate_bins=20
p_state_clk_gate_max=1000000000000
p_state_clk_gate_min=1000
pio_addr=2305843009213693952
pio_latency=100000
power_model=
system=system
int_master=system.piobus.slave[1]
int_slave=system.piobus.master[3]
pio=system.piobus.master[2]

[system.cpu0.isa]
type=X86ISA
eventq_index=0

[system.cpu0.itb]
type=X86TLB
children=walker
eventq_index=0
size=64
walker=system.cpu0.itb.walker

[system.cpu0.itb.walker]
type=X86PagetableWalker
clk_domain=system.cpu0.clk_domain
default_p_state=UNDEFINED
eventq_index=0
num_squash_per_cycle=4
p_state_clk_gate_bins=20
p_state_clk_gate_max=1000000000000
p_state_clk_gate_min=1000
power_model=
system=system

[system.cpu0.tracer]
type=ExeTracer
eventq_index=0

[system.cpu0.workload]
type=Process
children=drivers
cmd=/home/benchmarks/pannotia/fw/Floyd-Warshall /home/benchmarks/pannotia/dataset/floydwarshall/256_16384.gr 0
cwd=
drivers=system.cpu0.workload.drivers
egid=100
env=LD_LIBRARY_PATH=/opt/rocm/lib:/opt/rocm/hcc/lib:/opt/rocm/hip/lib:/opt/rocm/hsa/lib:/opt/rocm/libhsakmt/lib:/usr/lib/x86_64-linux-gnu:/opt/rocm/miopen/lib:/opt/rocm/miopengemm/lib:/opt/rocm/hipblas/lib:/opt/rocm/rocblas/lib HOME=/gem5 HSA_ENABLE_INTERRUPT=0
errout=cerr
euid=100
eventq_index=0
executable=/home/benchmarks/pannotia/fw/Floyd-Warshall
gid=100
input=cin
kvmInSE=false
maxStackSize=67108864
output=cout
pgid=100
pid=100
ppid=0
simpoint=0
system=system
uid=100
useArchPT=false

[system.cpu0.workload.drivers]
type=GPUComputeDriver
children=device
device=system.cpu0.workload.drivers.device
eventq_index=0
filename=kfd

[system.cpu0.workload.drivers.device]
type=GPUCommandProcessor
children=dispatcher hsapp
clk_domain=system.cpu0.clk_domain
default_p_state=UNDEFINED
dispatcher=system.cpu0.workload.drivers.device.dispatcher
eventq_index=0
hsapp=system.cpu0.workload.drivers.device.hsapp
p_state_clk_gate_bins=20
p_state_clk_gate_max=1000000000000
p_state_clk_gate_min=1000
power_model=
system=system
dma=system.dma_cntrl1.dma_sequencer.slave[0]
pio=system.piobus.master[0]

[system.cpu0.workload.drivers.device.dispatcher]
type=GPUDispatcher
eventq_index=0

[system.cpu0.workload.drivers.device.hsapp]
type=HSAPacketProcessor
clk_domain=system.cpu0.clk_domain
default_p_state=UNDEFINED
eventq_index=0
numHWQueues=10
p_state_clk_gate_bins=20
p_state_clk_gate_max=1000000000000
p_state_clk_gate_min=1000
pioAddr=536870912
pktProcessDelay=4400000
power_model=
system=system
wakeupDelay=100000000
dma=system.dma_cntrl0.dma_sequencer.slave[0]
pio=system.piobus.master[1]

[system.cpu1]
type=TimingSimpleCPU
children=apic_clk_domain clk_domain dtb interrupts isa itb tracer
branchPred=Null
checker=Null
clk_domain=system.cpu1.clk_domain
cpu_id=1
default_p_state=UNDEFINED
do_checkpoint_insts=true
do_quiesce=true
do_statistics_insts=true
dtb=system.cpu1.dtb
eventq_index=0
function_trace=false
function_trace_start=0
interrupts=system.cpu1.interrupts
isa=system.cpu1.isa
itb=system.cpu1.itb
max_insts_all_threads=0
max_insts_any_thread=0
max_loads_all_threads=0
max_loads_any_thread=0
numThreads=1
p_state_clk_gate_bins=20
p_state_clk_gate_max=1000000000000
p_state_clk_gate_min=1000
power_gating_on_idle=false
power_model=
profile=0
progress_interval=0
pwr_gating_latency=300
simpoint_start_insts=
socket_id=0
switched_out=false
syscallRetryLatency=10000
system=system
tracer=system.cpu1.tracer
wait_for_remote_gdb=false
workload=system.cpu0.workload
dcache_port=system.ruby.cp_cntrl0.sequencer1.slave[1]
icache_port=system.ruby.cp_cntrl0.sequencer1.slave[0]

[system.cpu1.apic_clk_domain]
type=DerivedClockDomain
clk_divider=16
clk_domain=system.cpu1.clk_domain
eventq_index=0

[system.cpu1.clk_domain]
type=SrcClockDomain
children=voltage_domain
clock=500
domain_id=-1
eventq_index=0
init_perf_level=0
voltage_domain=system.cpu1.clk_domain.voltage_domain

[system.cpu1.clk_domain.voltage_domain]
type=VoltageDomain
eventq_index=0
voltage=1.0

[system.cpu1.dtb]
type=X86TLB
children=walker
eventq_index=0
size=64
walker=system.cpu1.dtb.walker

[system.cpu1.dtb.walker]
type=X86PagetableWalker
clk_domain=system.cpu1.clk_domain
default_p_state=UNDEFINED
eventq_index=0
num_squash_per_cycle=4
p_state_clk_gate_bins=20
p_state_clk_gate_max=1000000000000
p_state_clk_gate_min=1000
power_model=
system=system

[system.cpu1.interrupts]
type=X86LocalApic
clk_domain=system.cpu1.apic_clk_domain
default_p_state=UNDEFINED
eventq_index=0
int_latency=1000
p_state_clk_gate_bins=20
p_state_clk_gate_max=1000000000000
p_state_clk_gate_min=1000
pio_addr=2305843009213693952
pio_latency=100000
power_model=
system=system
int_master=system.piobus.slave[3]
int_slave=system.piobus.master[5]
pio=system.piobus.master[4]

[system.cpu1.isa]
type=X86ISA
eventq_index=0

[system.cpu1.itb]
type=X86TLB
children=walker
eventq_index=0
size=64
walker=system.cpu1.itb.walker

[system.cpu1.itb.walker]
type=X86PagetableWalker
clk_domain=system.cpu1.clk_domain
default_p_state=UNDEFINED
eventq_index=0
num_squash_per_cycle=4
p_state_clk_gate_bins=20
p_state_clk_gate_max=1000000000000
p_state_clk_gate_min=1000
power_model=
system=system

[system.cpu1.tracer]
type=ExeTracer
eventq_index=0

[system.cpu2]
type=Shader
children=CUs0 CUs1 CUs2 CUs3 clk_domain
CUs=system.cpu2.CUs0 system.cpu2.CUs1 system.cpu2.CUs2 system.cpu2.CUs3
clk_domain=system.cpu2.clk_domain
cpu_pointer=system.cpu0
default_p_state=UNDEFINED
dispatcher=system.cpu0.workload.drivers.device.dispatcher
eventq_index=0
globalmem=65536
gpu_cmd_proc=system.cpu0.workload.drivers.device
idlecu_timeout=0
impl_kern_end_rel=false
impl_kern_launch_acq=true
max_valu_insts=0
n_wf=10
p_state_clk_gate_bins=20
p_state_clk_gate_max=1000000000000
p_state_clk_gate_min=1000
power_model=
timer_period=10000000
timing=true
translation=false

[system.cpu2.CUs0]
type=ComputeUnit
children=ldsBus localDataStore register_manager scalar_register_file0 scalar_register_file1 scalar_register_file2 scalar_register_file3 vector_register_file0 vector_register_file1 vector_register_file2 vector_register_file3 wavefronts00 wavefronts01 wavefronts02 wavefronts03 wavefronts04 wavefronts05 wavefronts06 wavefronts07 wavefronts08 wavefronts09 wavefronts10 wavefronts11 wavefronts12 wavefronts13 wavefronts14 wavefronts15 wavefronts16 wavefronts17 wavefronts18 wavefronts19 wavefronts20 wavefronts21 wavefronts22 wavefronts23 wavefronts24 wavefronts25 wavefronts26 wavefronts27 wavefronts28 wavefronts29 wavefronts30 wavefronts31 wavefronts32 wavefronts33 wavefronts34 wavefronts35 wavefronts36 wavefronts37 wavefronts38 wavefronts39
clk_domain=system.cpu2.clk_domain
coalescer_to_vrf_bus_width=32
countPages=false
cu_id=0
debugSegFault=false
default_p_state=UNDEFINED
dpbypass_pipe_length=4
eventq_index=0
execPolicy=OLDEST-FIRST
fetch_depth=2
force_flat_waitcnt_zero=true
functionalTLB=false
global_mem_queue_size=256
issue_period=4
localDataStore=system.cpu2.CUs0.localDataStore
localMemBarrier=false
local_mem_queue_size=256
max_cu_tokens=4
max_wave_requests=64
mem_req_latency=50
mem_resp_latency=50
n_wf=10
num_SIMDs=4
num_global_mem_pipes=1
num_scalar_cores=1
num_scalar_mem_pipes=1
num_shared_mem_pipes=1
operand_network_length=1
out_of_order_data_delivery=false
p_state_clk_gate_bins=20
p_state_clk_gate_max=1000000000000
p_state_clk_gate_min=1000
perLaneTLB=false
power_model=
prefetch_depth=0
prefetch_prev_type=PF_PHASE
prefetch_stride=1
register_manager=system.cpu2.CUs0.register_manager
scalar_mem_queue_size=32
scalar_pipe_length=1
scalar_register_file=system.cpu2.CUs0.scalar_register_file0 system.cpu2.CUs0.scalar_register_file1 system.cpu2.CUs0.scalar_register_file2 system.cpu2.CUs0.scalar_register_file3
simd_width=16
spbypass_pipe_length=4
srf_scm_bus_latency=1
system=system
vector_register_file=system.cpu2.CUs0.vector_register_file0 system.cpu2.CUs0.vector_register_file1 system.cpu2.CUs0.vector_register_file2 system.cpu2.CUs0.vector_register_file3
vrf_gm_bus_latency=1
vrf_lm_bus_latency=1
vrf_to_coalescer_bus_width=32
wavefronts=system.cpu2.CUs0.wavefronts00 system.cpu2.CUs0.wavefronts01 system.cpu2.CUs0.wavefronts02 system.cpu2.CUs0.wavefronts03 system.cpu2.CUs0.wavefronts04 system.cpu2.CUs0.wavefronts05 system.cpu2.CUs0.wavefronts06 system.cpu2.CUs0.wavefronts07 system.cpu2.CUs0.wavefronts08 system.cpu2.CUs0.wavefronts09 system.cpu2.CUs0.wavefronts10 system.cpu2.CUs0.wavefronts11 system.cpu2.CUs0.wavefronts12 system.cpu2.CUs0.wavefronts13 system.cpu2.CUs0.wavefronts14 system.cpu2.CUs0.wavefronts15 system.cpu2.CUs0.wavefronts16 system.cpu2.CUs0.wavefronts17 system.cpu2.CUs0.wavefronts18 system.cpu2.CUs0.wavefronts19 system.cpu2.CUs0.wavefronts20 system.cpu2.CUs0.wavefronts21 system.cpu2.CUs0.wavefronts22 system.cpu2.CUs0.wavefronts23 system.cpu2.CUs0.wavefronts24 system.cpu2.CUs0.wavefronts25 system.cpu2.CUs0.wavefronts26 system.cpu2.CUs0.wavefronts27 system.cpu2.CUs0.wavefronts28 system.cpu2.CUs0.wavefronts29 system.cpu2.CUs0.wavefronts30 system.cpu2.CUs0.wavefronts31 system.cpu2.CUs0.wavefronts32 system.cpu2.CUs0.wavefronts33 system.cpu2.CUs0.wavefronts34 system.cpu2.CUs0.wavefronts35 system.cpu2.CUs0.wavefronts36 system.cpu2.CUs0.wavefronts37 system.cpu2.CUs0.wavefronts38 system.cpu2.CUs0.wavefronts39
wf_size=64
ldsPort=system.cpu2.CUs0.ldsBus.slave
memory_port=system.ruby.tcp_cntrl0.coalescer.slave[0] system.ruby.tcp_cntrl0.coalescer.slave[1] system.ruby.tcp_cntrl0.coalescer.slave[2] system.ruby.tcp_cntrl0.coalescer.slave[3] system.ruby.tcp_cntrl0.coalescer.slave[4] system.ruby.tcp_cntrl0.coalescer.slave[5] system.ruby.tcp_cntrl0.coalescer.slave[6] system.ruby.tcp_cntrl0.coalescer.slave[7] system.ruby.tcp_cntrl0.coalescer.slave[8] system.ruby.tcp_cntrl0.coalescer.slave[9] system.ruby.tcp_cntrl0.coalescer.slave[10] system.ruby.tcp_cntrl0.coalescer.slave[11] system.ruby.tcp_cntrl0.coalescer.slave[12] system.ruby.tcp_cntrl0.coalescer.slave[13] system.ruby.tcp_cntrl0.coalescer.slave[14] system.ruby.tcp_cntrl0.coalescer.slave[15] system.ruby.tcp_cntrl0.coalescer.slave[16] system.ruby.tcp_cntrl0.coalescer.slave[17] system.ruby.tcp_cntrl0.coalescer.slave[18] system.ruby.tcp_cntrl0.coalescer.slave[19] system.ruby.tcp_cntrl0.coalescer.slave[20] system.ruby.tcp_cntrl0.coalescer.slave[21] system.ruby.tcp_cntrl0.coalescer.slave[22] system.ruby.tcp_cntrl0.coalescer.slave[23] system.ruby.tcp_cntrl0.coalescer.slave[24] system.ruby.tcp_cntrl0.coalescer.slave[25] system.ruby.tcp_cntrl0.coalescer.slave[26] system.ruby.tcp_cntrl0.coalescer.slave[27] system.ruby.tcp_cntrl0.coalescer.slave[28] system.ruby.tcp_cntrl0.coalescer.slave[29] system.ruby.tcp_cntrl0.coalescer.slave[30] system.ruby.tcp_cntrl0.coalescer.slave[31] system.ruby.tcp_cntrl0.coalescer.slave[32] system.ruby.tcp_cntrl0.coalescer.slave[33] system.ruby.tcp_cntrl0.coalescer.slave[34] system.ruby.tcp_cntrl0.coalescer.slave[35] system.ruby.tcp_cntrl0.coalescer.slave[36] system.ruby.tcp_cntrl0.coalescer.slave[37] system.ruby.tcp_cntrl0.coalescer.slave[38] system.ruby.tcp_cntrl0.coalescer.slave[39] system.ruby.tcp_cntrl0.coalescer.slave[40] system.ruby.tcp_cntrl0.coalescer.slave[41] system.ruby.tcp_cntrl0.coalescer.slave[42] system.ruby.tcp_cntrl0.coalescer.slave[43] system.ruby.tcp_cntrl0.coalescer.slave[44] system.ruby.tcp_cntrl0.coalescer.slave[45] system.ruby.tcp_cntrl0.coalescer.slave[46] system.ruby.tcp_cntrl0.coalescer.slave[47] system.ruby.tcp_cntrl0.coalescer.slave[48] system.ruby.tcp_cntrl0.coalescer.slave[49] system.ruby.tcp_cntrl0.coalescer.slave[50] system.ruby.tcp_cntrl0.coalescer.slave[51] system.ruby.tcp_cntrl0.coalescer.slave[52] system.ruby.tcp_cntrl0.coalescer.slave[53] system.ruby.tcp_cntrl0.coalescer.slave[54] system.ruby.tcp_cntrl0.coalescer.slave[55] system.ruby.tcp_cntrl0.coalescer.slave[56] system.ruby.tcp_cntrl0.coalescer.slave[57] system.ruby.tcp_cntrl0.coalescer.slave[58] system.ruby.tcp_cntrl0.coalescer.slave[59] system.ruby.tcp_cntrl0.coalescer.slave[60] system.ruby.tcp_cntrl0.coalescer.slave[61] system.ruby.tcp_cntrl0.coalescer.slave[62] system.ruby.tcp_cntrl0.coalescer.slave[63]
scalar_port=system.ruby.scalar_cntrl0.sequencer.slave[0]
scalar_tlb_port=system.scalar_coalescer.slave[0]
sqc_port=system.ruby.sqc_cntrl0.sequencer.slave[0]
sqc_tlb_port=system.sqc_coalescer.slave[0]
translation_port=system.l1_coalescer0.slave[0]

[system.cpu2.CUs0.ldsBus]
type=Bridge
clk_domain=system.cpu2.clk_domain
default_p_state=UNDEFINED
delay=0
eventq_index=0
p_state_clk_gate_bins=20
p_state_clk_gate_max=1000000000000
p_state_clk_gate_min=1000
power_model=
ranges=0:18446744073709551615:0:0:0:0
req_size=16
resp_size=16
master=system.cpu2.CUs0.localDataStore.cuPort
slave=system.cpu2.CUs0.ldsPort

[system.cpu2.CUs0.localDataStore]
type=LdsState
bankConflictPenalty=1
banks=32
clk_domain=system.cpu2.clk_domain
default_p_state=UNDEFINED
eventq_index=0
p_state_clk_gate_bins=20
p_state_clk_gate_max=1000000000000
p_state_clk_gate_min=1000
power_model=
range=0:65535:0:0:0:0
size=65536
cuPort=system.cpu2.CUs0.ldsBus.master

[system.cpu2.CUs0.register_manager]
type=RegisterManager
children=srf_pool_managers0 srf_pool_managers1 srf_pool_managers2 srf_pool_managers3 vrf_pool_managers0 vrf_pool_managers1 vrf_pool_managers2 vrf_pool_managers3
eventq_index=0
policy=static
srf_pool_managers=system.cpu2.CUs0.register_manager.srf_pool_managers0 system.cpu2.CUs0.register_manager.srf_pool_managers1 system.cpu2.CUs0.register_manager.srf_pool_managers2 system.cpu2.CUs0.register_manager.srf_pool_managers3
vrf_pool_managers=system.cpu2.CUs0.register_manager.vrf_pool_managers0 system.cpu2.CUs0.register_manager.vrf_pool_managers1 system.cpu2.CUs0.register_manager.vrf_pool_managers2 system.cpu2.CUs0.register_manager.vrf_pool_managers3

[system.cpu2.CUs0.register_manager.srf_pool_managers0]
type=SimplePoolManager
eventq_index=0
min_alloc=4
pool_size=2048

[system.cpu2.CUs0.register_manager.srf_pool_managers1]
type=SimplePoolManager
eventq_index=0
min_alloc=4
pool_size=2048

[system.cpu2.CUs0.register_manager.srf_pool_managers2]
type=SimplePoolManager
eventq_index=0
min_alloc=4
pool_size=2048

[system.cpu2.CUs0.register_manager.srf_pool_managers3]
type=SimplePoolManager
eventq_index=0
min_alloc=4
pool_size=2048

[system.cpu2.CUs0.register_manager.vrf_pool_managers0]
type=SimplePoolManager
eventq_index=0
min_alloc=4
pool_size=2048

[system.cpu2.CUs0.register_manager.vrf_pool_managers1]
type=SimplePoolManager
eventq_index=0
min_alloc=4
pool_size=2048

[system.cpu2.CUs0.register_manager.vrf_pool_managers2]
type=SimplePoolManager
eventq_index=0
min_alloc=4
pool_size=2048

[system.cpu2.CUs0.register_manager.vrf_pool_managers3]
type=SimplePoolManager
eventq_index=0
min_alloc=4
pool_size=2048

[system.cpu2.CUs0.scalar_register_file0]
type=ScalarRegisterFile
eventq_index=0
num_regs=2048
simd_id=0
wf_size=64

[system.cpu2.CUs0.scalar_register_file1]
type=ScalarRegisterFile
eventq_index=0
num_regs=2048
simd_id=1
wf_size=64

[system.cpu2.CUs0.scalar_register_file2]
type=ScalarRegisterFile
eventq_index=0
num_regs=2048
simd_id=2
wf_size=64

[system.cpu2.CUs0.scalar_register_file3]
type=ScalarRegisterFile
eventq_index=0
num_regs=2048
simd_id=3
wf_size=64

[system.cpu2.CUs0.vector_register_file0]
type=VectorRegisterFile
eventq_index=0
num_regs=2048
simd_id=0
wf_size=64

[system.cpu2.CUs0.vector_register_file1]
type=VectorRegisterFile
eventq_index=0
num_regs=2048
simd_id=1
wf_size=64

[system.cpu2.CUs0.vector_register_file2]
type=VectorRegisterFile
eventq_index=0
num_regs=2048
simd_id=2
wf_size=64

[system.cpu2.CUs0.vector_register_file3]
type=VectorRegisterFile
eventq_index=0
num_regs=2048
simd_id=3
wf_size=64

[system.cpu2.CUs0.wavefronts00]
type=Wavefront
eventq_index=0
max_ib_size=13
simdId=0
wf_size=64
wf_slot_id=0

[system.cpu2.CUs0.wavefronts01]
type=Wavefront
eventq_index=0
max_ib_size=13
simdId=0
wf_size=64
wf_slot_id=1

[system.cpu2.CUs0.wavefronts02]
type=Wavefront
eventq_index=0
max_ib_size=13
simdId=0
wf_size=64
wf_slot_id=2

[system.cpu2.CUs0.wavefronts03]
type=Wavefront
eventq_index=0
max_ib_size=13
simdId=0
wf_size=64
wf_slot_id=3

[system.cpu2.CUs0.wavefronts04]
type=Wavefront
eventq_index=0
max_ib_size=13
simdId=0
wf_size=64
wf_slot_id=4

[system.cpu2.CUs0.wavefronts05]
type=Wavefront
eventq_index=0
max_ib_size=13
simdId=0
wf_size=64
wf_slot_id=5

[system.cpu2.CUs0.wavefronts06]
type=Wavefront
eventq_index=0
max_ib_size=13
simdId=0
wf_size=64
wf_slot_id=6

[system.cpu2.CUs0.wavefronts07]
type=Wavefront
eventq_index=0
max_ib_size=13
simdId=0
wf_size=64
wf_slot_id=7

[system.cpu2.CUs0.wavefronts08]
type=Wavefront
eventq_index=0
max_ib_size=13
simdId=0
wf_size=64
wf_slot_id=8

[system.cpu2.CUs0.wavefronts09]
type=Wavefront
eventq_index=0
max_ib_size=13
simdId=0
wf_size=64
wf_slot_id=9

[system.cpu2.CUs0.wavefronts10]
type=Wavefront
eventq_index=0
max_ib_size=13
simdId=1
wf_size=64
wf_slot_id=0

[system.cpu2.CUs0.wavefronts11]
type=Wavefront
eventq_index=0
max_ib_size=13
simdId=1
wf_size=64
wf_slot_id=1

[system.cpu2.CUs0.wavefronts12]
type=Wavefront
eventq_index=0
max_ib_size=13
simdId=1
wf_size=64
wf_slot_id=2

[system.cpu2.CUs0.wavefronts13]
type=Wavefront
eventq_index=0
max_ib_size=13
simdId=1
wf_size=64
wf_slot_id=3

[system.cpu2.CUs0.wavefronts14]
type=Wavefront
eventq_index=0
max_ib_size=13
simdId=1
wf_size=64
wf_slot_id=4

[system.cpu2.CUs0.wavefronts15]
type=Wavefront
eventq_index=0
max_ib_size=13
simdId=1
wf_size=64
wf_slot_id=5

[system.cpu2.CUs0.wavefronts16]
type=Wavefront
eventq_index=0
max_ib_size=13
simdId=1
wf_size=64
wf_slot_id=6

[system.cpu2.CUs0.wavefronts17]
type=Wavefront
eventq_index=0
max_ib_size=13
simdId=1
wf_size=64
wf_slot_id=7

[system.cpu2.CUs0.wavefronts18]
type=Wavefront
eventq_index=0
max_ib_size=13
simdId=1
wf_size=64
wf_slot_id=8

[system.cpu2.CUs0.wavefronts19]
type=Wavefront
eventq_index=0
max_ib_size=13
simdId=1
wf_size=64
wf_slot_id=9

[system.cpu2.CUs0.wavefronts20]
type=Wavefront
eventq_index=0
max_ib_size=13
simdId=2
wf_size=64
wf_slot_id=0

[system.cpu2.CUs0.wavefronts21]
type=Wavefront
eventq_index=0
max_ib_size=13
simdId=2
wf_size=64
wf_slot_id=1

[system.cpu2.CUs0.wavefronts22]
type=Wavefront
eventq_index=0
max_ib_size=13
simdId=2
wf_size=64
wf_slot_id=2

[system.cpu2.CUs0.wavefronts23]
type=Wavefront
eventq_index=0
max_ib_size=13
simdId=2
wf_size=64
wf_slot_id=3

[system.cpu2.CUs0.wavefronts24]
type=Wavefront
eventq_index=0
max_ib_size=13
simdId=2
wf_size=64
wf_slot_id=4

[system.cpu2.CUs0.wavefronts25]
type=Wavefront
eventq_index=0
max_ib_size=13
simdId=2
wf_size=64
wf_slot_id=5

[system.cpu2.CUs0.wavefronts26]
type=Wavefront
eventq_index=0
max_ib_size=13
simdId=2
wf_size=64
wf_slot_id=6

[system.cpu2.CUs0.wavefronts27]
type=Wavefront
eventq_index=0
max_ib_size=13
simdId=2
wf_size=64
wf_slot_id=7

[system.cpu2.CUs0.wavefronts28]
type=Wavefront
eventq_index=0
max_ib_size=13
simdId=2
wf_size=64
wf_slot_id=8

[system.cpu2.CUs0.wavefronts29]
type=Wavefront
eventq_index=0
max_ib_size=13
simdId=2
wf_size=64
wf_slot_id=9

[system.cpu2.CUs0.wavefronts30]
type=Wavefront
eventq_index=0
max_ib_size=13
simdId=3
wf_size=64
wf_slot_id=0

[system.cpu2.CUs0.wavefronts31]
type=Wavefront
eventq_index=0
max_ib_size=13
simdId=3
wf_size=64
wf_slot_id=1

[system.cpu2.CUs0.wavefronts32]
type=Wavefront
eventq_index=0
max_ib_size=13
simdId=3
wf_size=64
wf_slot_id=2

[system.cpu2.CUs0.wavefronts33]
type=Wavefront
eventq_index=0
max_ib_size=13
simdId=3
wf_size=64
wf_slot_id=3

[system.cpu2.CUs0.wavefronts34]
type=Wavefront
eventq_index=0
max_ib_size=13
simdId=3
wf_size=64
wf_slot_id=4

[system.cpu2.CUs0.wavefronts35]
type=Wavefront
eventq_index=0
max_ib_size=13
simdId=3
wf_size=64
wf_slot_id=5

[system.cpu2.CUs0.wavefronts36]
type=Wavefront
eventq_index=0
max_ib_size=13
simdId=3
wf_size=64
wf_slot_id=6

[system.cpu2.CUs0.wavefronts37]
type=Wavefront
eventq_index=0
max_ib_size=13
simdId=3
wf_size=64
wf_slot_id=7

[system.cpu2.CUs0.wavefronts38]
type=Wavefront
eventq_index=0
max_ib_size=13
simdId=3
wf_size=64
wf_slot_id=8

[system.cpu2.CUs0.wavefronts39]
type=Wavefront
eventq_index=0
max_ib_size=13
simdId=3
wf_size=64
wf_slot_id=9

[system.cpu2.CUs1]
type=ComputeUnit
children=ldsBus localDataStore register_manager scalar_register_file0 scalar_register_file1 scalar_register_file2 scalar_register_file3 vector_register_file0 vector_register_file1 vector_register_file2 vector_register_file3 wavefronts00 wavefronts01 wavefronts02 wavefronts03 wavefronts04 wavefronts05 wavefronts06 wavefronts07 wavefronts08 wavefronts09 wavefronts10 wavefronts11 wavefronts12 wavefronts13 wavefronts14 wavefronts15 wavefronts16 wavefronts17 wavefronts18 wavefronts19 wavefronts20 wavefronts21 wavefronts22 wavefronts23 wavefronts24 wavefronts25 wavefronts26 wavefronts27 wavefronts28 wavefronts29 wavefronts30 wavefronts31 wavefronts32 wavefronts33 wavefronts34 wavefronts35 wavefronts36 wavefronts37 wavefronts38 wavefronts39
clk_domain=system.cpu2.clk_domain
coalescer_to_vrf_bus_width=32
countPages=false
cu_id=1
debugSegFault=false
default_p_state=UNDEFINED
dpbypass_pipe_length=4
eventq_index=0
execPolicy=OLDEST-FIRST
fetch_depth=2
force_flat_waitcnt_zero=true
functionalTLB=false
global_mem_queue_size=256
issue_period=4
localDataStore=system.cpu2.CUs1.localDataStore
localMemBarrier=false
local_mem_queue_size=256
max_cu_tokens=4
max_wave_requests=64
mem_req_latency=50
mem_resp_latency=50
n_wf=10
num_SIMDs=4
num_global_mem_pipes=1
num_scalar_cores=1
num_scalar_mem_pipes=1
num_shared_mem_pipes=1
operand_network_length=1
out_of_order_data_delivery=false
p_state_clk_gate_bins=20
p_state_clk_gate_max=1000000000000
p_state_clk_gate_min=1000
perLaneTLB=false
power_model=
prefetch_depth=0
prefetch_prev_type=PF_PHASE
prefetch_stride=1
register_manager=system.cpu2.CUs1.register_manager
scalar_mem_queue_size=32
scalar_pipe_length=1
scalar_register_file=system.cpu2.CUs1.scalar_register_file0 system.cpu2.CUs1.scalar_register_file1 system.cpu2.CUs1.scalar_register_file2 system.cpu2.CUs1.scalar_register_file3
simd_width=16
spbypass_pipe_length=4
srf_scm_bus_latency=1
system=system
vector_register_file=system.cpu2.CUs1.vector_register_file0 system.cpu2.CUs1.vector_register_file1 system.cpu2.CUs1.vector_register_file2 system.cpu2.CUs1.vector_register_file3
vrf_gm_bus_latency=1
vrf_lm_bus_latency=1
vrf_to_coalescer_bus_width=32
wavefronts=system.cpu2.CUs1.wavefronts00 system.cpu2.CUs1.wavefronts01 system.cpu2.CUs1.wavefronts02 system.cpu2.CUs1.wavefronts03 system.cpu2.CUs1.wavefronts04 system.cpu2.CUs1.wavefronts05 system.cpu2.CUs1.wavefronts06 system.cpu2.CUs1.wavefronts07 system.cpu2.CUs1.wavefronts08 system.cpu2.CUs1.wavefronts09 system.cpu2.CUs1.wavefronts10 system.cpu2.CUs1.wavefronts11 system.cpu2.CUs1.wavefronts12 system.cpu2.CUs1.wavefronts13 system.cpu2.CUs1.wavefronts14 system.cpu2.CUs1.wavefronts15 system.cpu2.CUs1.wavefronts16 system.cpu2.CUs1.wavefronts17 system.cpu2.CUs1.wavefronts18 system.cpu2.CUs1.wavefronts19 system.cpu2.CUs1.wavefronts20 system.cpu2.CUs1.wavefronts21 system.cpu2.CUs1.wavefronts22 system.cpu2.CUs1.wavefronts23 system.cpu2.CUs1.wavefronts24 system.cpu2.CUs1.wavefronts25 system.cpu2.CUs1.wavefronts26 system.cpu2.CUs1.wavefronts27 system.cpu2.CUs1.wavefronts28 system.cpu2.CUs1.wavefronts29 system.cpu2.CUs1.wavefronts30 system.cpu2.CUs1.wavefronts31 system.cpu2.CUs1.wavefronts32 system.cpu2.CUs1.wavefronts33 system.cpu2.CUs1.wavefronts34 system.cpu2.CUs1.wavefronts35 system.cpu2.CUs1.wavefronts36 system.cpu2.CUs1.wavefronts37 system.cpu2.CUs1.wavefronts38 system.cpu2.CUs1.wavefronts39
wf_size=64
ldsPort=system.cpu2.CUs1.ldsBus.slave
memory_port=system.ruby.tcp_cntrl1.coalescer.slave[0] system.ruby.tcp_cntrl1.coalescer.slave[1] system.ruby.tcp_cntrl1.coalescer.slave[2] system.ruby.tcp_cntrl1.coalescer.slave[3] system.ruby.tcp_cntrl1.coalescer.slave[4] system.ruby.tcp_cntrl1.coalescer.slave[5] system.ruby.tcp_cntrl1.coalescer.slave[6] system.ruby.tcp_cntrl1.coalescer.slave[7] system.ruby.tcp_cntrl1.coalescer.slave[8] system.ruby.tcp_cntrl1.coalescer.slave[9] system.ruby.tcp_cntrl1.coalescer.slave[10] system.ruby.tcp_cntrl1.coalescer.slave[11] system.ruby.tcp_cntrl1.coalescer.slave[12] system.ruby.tcp_cntrl1.coalescer.slave[13] system.ruby.tcp_cntrl1.coalescer.slave[14] system.ruby.tcp_cntrl1.coalescer.slave[15] system.ruby.tcp_cntrl1.coalescer.slave[16] system.ruby.tcp_cntrl1.coalescer.slave[17] system.ruby.tcp_cntrl1.coalescer.slave[18] system.ruby.tcp_cntrl1.coalescer.slave[19] system.ruby.tcp_cntrl1.coalescer.slave[20] system.ruby.tcp_cntrl1.coalescer.slave[21] system.ruby.tcp_cntrl1.coalescer.slave[22] system.ruby.tcp_cntrl1.coalescer.slave[23] system.ruby.tcp_cntrl1.coalescer.slave[24] system.ruby.tcp_cntrl1.coalescer.slave[25] system.ruby.tcp_cntrl1.coalescer.slave[26] system.ruby.tcp_cntrl1.coalescer.slave[27] system.ruby.tcp_cntrl1.coalescer.slave[28] system.ruby.tcp_cntrl1.coalescer.slave[29] system.ruby.tcp_cntrl1.coalescer.slave[30] system.ruby.tcp_cntrl1.coalescer.slave[31] system.ruby.tcp_cntrl1.coalescer.slave[32] system.ruby.tcp_cntrl1.coalescer.slave[33] system.ruby.tcp_cntrl1.coalescer.slave[34] system.ruby.tcp_cntrl1.coalescer.slave[35] system.ruby.tcp_cntrl1.coalescer.slave[36] system.ruby.tcp_cntrl1.coalescer.slave[37] system.ruby.tcp_cntrl1.coalescer.slave[38] system.ruby.tcp_cntrl1.coalescer.slave[39] system.ruby.tcp_cntrl1.coalescer.slave[40] system.ruby.tcp_cntrl1.coalescer.slave[41] system.ruby.tcp_cntrl1.coalescer.slave[42] system.ruby.tcp_cntrl1.coalescer.slave[43] system.ruby.tcp_cntrl1.coalescer.slave[44] system.ruby.tcp_cntrl1.coalescer.slave[45] system.ruby.tcp_cntrl1.coalescer.slave[46] system.ruby.tcp_cntrl1.coalescer.slave[47] system.ruby.tcp_cntrl1.coalescer.slave[48] system.ruby.tcp_cntrl1.coalescer.slave[49] system.ruby.tcp_cntrl1.coalescer.slave[50] system.ruby.tcp_cntrl1.coalescer.slave[51] system.ruby.tcp_cntrl1.coalescer.slave[52] system.ruby.tcp_cntrl1.coalescer.slave[53] system.ruby.tcp_cntrl1.coalescer.slave[54] system.ruby.tcp_cntrl1.coalescer.slave[55] system.ruby.tcp_cntrl1.coalescer.slave[56] system.ruby.tcp_cntrl1.coalescer.slave[57] system.ruby.tcp_cntrl1.coalescer.slave[58] system.ruby.tcp_cntrl1.coalescer.slave[59] system.ruby.tcp_cntrl1.coalescer.slave[60] system.ruby.tcp_cntrl1.coalescer.slave[61] system.ruby.tcp_cntrl1.coalescer.slave[62] system.ruby.tcp_cntrl1.coalescer.slave[63]
scalar_port=system.ruby.scalar_cntrl0.sequencer.slave[1]
scalar_tlb_port=system.scalar_coalescer.slave[1]
sqc_port=system.ruby.sqc_cntrl0.sequencer.slave[1]
sqc_tlb_port=system.sqc_coalescer.slave[1]
translation_port=system.l1_coalescer1.slave[0]

[system.cpu2.CUs1.ldsBus]
type=Bridge
clk_domain=system.cpu2.clk_domain
default_p_state=UNDEFINED
delay=0
eventq_index=0
p_state_clk_gate_bins=20
p_state_clk_gate_max=1000000000000
p_state_clk_gate_min=1000